!!>>>>>>>>>>>>>>>>>>>>>>>>>>>>>>>>>>>>>>>>>>>>>>>>>>>>>>>>>>>>>>>>>>>>>>
!! NEMO/OPA  :  1 - run manager      (namrun, namcfg)
!! namelists    2 - Domain           (namzgr, namzgr_sco, namdom, namtsd)
!!              3 - Surface boundary (namsbc, namsbc_ana, namsbc_flx, namsbc_clio, namsbc_core, namsbc_sas
!!                                    namsbc_cpl, namtra_qsr, namsbc_rnf,
!!                                    namsbc_apr, namsbc_ssr, namsbc_alb)
!!              4 - lateral boundary (namlbc, namcla, namobc, namagrif, nambdy, nambdy_tide)
!!              5 - bottom  boundary (nambfr, nambbc, nambbl)
!!              6 - Tracer           (nameos, namtra_adv, namtra_ldf, namtra_dmp)
!!              7 - dynamics         (namdyn_adv, namdyn_vor, namdyn_hpg, namdyn_spg, namdyn_ldf)
!!              8 - Verical physics  (namzdf, namzdf_ric, namzdf_tke, namzdf_kpp, namzdf_ddm, namzdf_tmx)
!!              9 - diagnostics      (namnc4, namtrd, namspr, namflo, namptr, namhsb)
!!             10 - miscellaneous    (namsol, nammpp, namctl)
!!             11 - Obs & Assim      (namobs, nam_asminc)
!!>>>>>>>>>>>>>>>>>>>>>>>>>>>>>>>>>>>>>>>>>>>>>>>>>>>>>>>>>>>>>>>>>>>>>>

!!======================================================================
!!                   ***  Run management namelists  ***
!!======================================================================
!!   namrun        parameters of the run
!!======================================================================
!
!-----------------------------------------------------------------------
&namrun        !   parameters of the run
!-----------------------------------------------------------------------
nn_no       =       0   !  job number (no more used...)
   cn_exp      =  "AMM60noxml"  !  experience name
nn_it000 = 1
nn_itend = 1440
nn_date0 = 20100204
   nn_leapy    =       1   !  Leap year calendar (1) or not (0)
ln_rstart   =   .false.
   cn_ocerst_in   = "restart"   !  suffix of ocean restart name (input)
   cn_ocerst_out  = "restart"   !  suffix of ocean restart name (input)
   nn_istate   =     1     !  output the initial state (1) or not (0)
nn_stock = 1440
nn_write = 1440
   ln_dimgnnn  = .false.   !  DIMG file format: 1 file for all processors (F) or by processor (T)
   ln_mskland  = .false.   !  mask land points in NetCDF outputs (costly: + ~15%)
   ln_clobber  = .false.   !  clobber (overwrite) an existing file
   nn_chunksz  =       0   !  chunksize (bytes) for NetCDF file (works only with iom_nf90 routines)
/
!
!-----------------------------------------------------------------------
&namcfg     !   default parameters of the configuration
!-----------------------------------------------------------------------
   cp_cfg      =  "AMM60"                !  name of the configuration
   cp_cfz      =         ''            !  name of the zoom of configuration
   jp_cfg      =     0.01667                !  resolution of the configuration
   jpidta      =      297               !  1st lateral dimension ( >= jpi )
   jpjdta      =      375               !  2nd    "         "    ( >= jpj )
   jpkdta      =      51               !  number of levels      ( >= jpk )
   jpiglo      =      297               !  1st dimension of global domain --> i =jpidta
   jpjglo      =      375               !  2nd    -                  -    --> j  =jpjdta
   jpizoom     =       1               !  left bottom (i,j) indices of the zoom
   jpjzoom     =       1               !  in data domain indices
   jperio      =       0               !  lateral cond. type (between 0 and 6)
                                       !  = 0 closed                 ;   = 1 cyclic East-West
                                       !  = 2 equatorial symmetric   ;   = 3 North fold T-point pivot
                                       !  = 4 cyclic East-West AND North fold T-point pivot
                                       !  = 5 North fold F-point pivot
                                       !  = 6 cyclic East-West AND North fold F-point pivot
/
!!======================================================================
!!                      ***  Domain namelists  ***
!!======================================================================
!!   namzgr       vertical coordinate
!!   namzgr_sco   s-coordinate or hybrid z-s-coordinate
!!   namdom       space and time domain (bathymetry, mesh, timestep)
!!   namtsd       data: temperature & salinity
!!======================================================================
!
!-----------------------------------------------------------------------
&namzgr        !   vertical coordinate
!-----------------------------------------------------------------------
   ln_zco      = .false.   !  z-coordinate - full    steps   (T/F)      ("key_zco" may also be defined)
   ln_zps      = .false.    !  z-coordinate - partial steps   (T/F)
   ln_sco      = .true.   !  s- or hybrid z-s-coordinate    (T/F)
/
!-----------------------------------------------------------------------
&namzgr_sco    !   s-coordinate or hybrid z-s-coordinate
!-----------------------------------------------------------------------
   ln_s_sh94   = .false.   !  Song & Haidvogel 1994 hybrid S-sigma   (T)|
   ln_s_sf12   = .true.    !  Siddorn & Furner 2012 hybrid S-z-sigma (T)| if both are false the NEMO tanh stretching is applied
   ln_sigcrit  = .true.    !  use sigma coordinates below critical depth (T) or Z coordinates (F) for Siddorn & Furner stretch
                           !  stretching coefficients for all functions
   rn_sbot_min =   10.0    !  minimum depth of s-bottom surface (>0) (m)
   rn_sbot_max =  7000.0    !  maximum depth of s-bottom surface (= ocean depth) (>0) (m)
   rn_hc       =  50.0    !  critical depth for transition to stretched coordinates
                        !!!!!!!  Envelop bathymetry
   rn_rmax     =    0.24   !  maximum cut-off r-value allowed (0<r_max<1)    ! slwa
   rn_theta    =    6.0    !  surface control parameter (0<=theta<=20)
   rn_bb       =    0.8    !  stretching with SH94 s-sigma
                        !!!!!!!  SF12 stretching coefficient  (ln_s_sf12 = .true.)
   rn_alpha    =    4.4    !  stretching with SF12 s-sigma
   rn_efold    =    0.0    !  efold length scale for transition to stretched coord
   rn_zs       =    1.0    !  depth of surface grid box
                           !  bottom cell depth (Zb) is a linear function of water depth Zb = H*a + b
   rn_zb_a     =    0.024  !  bathymetry scaling factor for calculating Zb
   rn_zb_b     =   -0.2    !  offset for calculating Zb
                        !!!!!!!! Other stretching (not SH94 or SF12) [also uses rn_theta above]
   rn_thetb    =    1.0    !  bottom control parameter  (0<=thetb<= 1)
/
!-----------------------------------------------------------------------
&namdom        !   space and time domain (bathymetry, mesh, timestep)
!-----------------------------------------------------------------------
   nn_bathy    =    1      !  compute (=0) or read (=1) the bathymetry file
   rn_bathy    =    0     !  value of the bathymetry. if (=0) bottom flat at jpkm1
   rn_e3zps_min=   20.     !  partial step thickness is set larger than the minimum of
   rn_e3zps_rat=    0.1    !  rn_e3zps_min and rn_e3zps_rat*e3t, with 0<rn_e3zps_rat<1
                           !
   nn_msh      =    0      !  create (=1) a mesh file or not (=0)
   rn_hmin     =   -3.     !  min depth of the ocean (>0) or min number of ocean level (<0)
   nn_acc      =    0      !  acceleration of convergence : =1      used, rdt < rdttra(k)
                                 !                          =0, not used, rdt = rdttra
   rn_atfp     =    0.1    !  asselin time filter parameter
   rn_rdt      =   300.    !  time step for the dynamics (and tracer if nn_acc=0)
   rn_rdtmin   = 28800.          !  minimum time step on tracers (used if nn_acc=1)
   rn_rdtmax   = 28800.          !  maximum time step on tracers (used if nn_acc=1)
   rn_rdth     =  800.           !  depth variation of tracer time step  (used if nn_acc=1)
   nn_closea   =    0      !  remove (=0) or keep (=1) closed seas and lakes (ORCA)
   ln_crs      = .false.      !  Logical switch for coarsening module
   jphgr_msh   =       0               !  type of horizontal mesh
                                       !  = 0 curvilinear coordinate on the sphere read in coordinate.nc
                                       !  = 1 geographical mesh on the sphere with regular grid-spacing
                                       !  = 2 f-plane with regular grid-spacing
                                       !  = 3 beta-plane with regular grid-spacing
                                       !  = 4 Mercator grid with T/U point at the equator
   ppglam0     =       0.0             !  longitude of first raw and column T-point (jphgr_msh = 1)
   ppgphi0     =     -35.0             ! latitude  of first raw and column T-point (jphgr_msh = 1)
   ppe1_deg    =       1.0             !  zonal      grid-spacing (degrees)
   ppe2_deg    =       0.5             !  meridional grid-spacing (degrees)
   ppe1_m      =    5000.0             !  zonal      grid-spacing (degrees)
   ppe2_m      =    5000.0             !  meridional grid-spacing (degrees)
   ppsur       =    -4762.96143546300  !  ORCA r4, r2 and r05 coefficients
   ppa0        =      255.58049070440  ! (default coefficients)
   ppa1        =      245.58132232490  !
   ppkth       =       21.43336197938  !
   ppacr       =        3.0            !
   ppdzmin     =       10.             !  Minimum vertical spacing
   pphmax      =     5000.             !  Maximum depth
   ldbletanh   =    .false.             !  Use/do not use double tanf function for vertical coordinates
   ppa2        =      100.760928500000 !  Double tanh function parameters
   ppkth2      =       48.029893720000 !
   ppacr2      =       13.000000000000 !
/
!-----------------------------------------------------------------------
&namsplit      !   time splitting parameters                            ("key_dynspg_ts")
!-----------------------------------------------------------------------
   ln_bt_fw      =    .true.           !  Forward integration of barotropic equations
   ln_bt_av      =    .true.           !  Time filtering of barotropic variables
   ln_bt_nn_auto =    .false.           !  Set nn_baro automatically to be just below
                                       !  a user defined maximum courant number (rn_bt_cmax)
   nn_baro       =    30               !  Number of iterations of barotropic mode
                                       !  during rn_rdt seconds. Only used if ln_bt_nn_auto=F
   rn_bt_cmax    =    0.8              !  Maximum courant number allowed if ln_bt_nn_auto=T
   nn_bt_flt     =    1                !  Time filter choice
                                       !  = 0 None
                                       !  = 1 Boxcar over   nn_baro barotropic steps
                                       !  = 2 Boxcar over 2*nn_baro     "        "
/
!-----------------------------------------------------------------------
&namcrs        !   Grid coarsening for dynamics output and/or
               !   passive tracer coarsened online simulations
!-----------------------------------------------------------------------
   nn_factx    = 3         !  Reduction factor of x-direction
   nn_facty    = 3         !  Reduction factor of y-direction
   nn_binref   = 0         !  Bin centering preference: NORTH or EQUAT
                           !  0, coarse grid is binned with preferential treatment of the north fold
                           !  1, coarse grid is binned with centering at the equator
                           !    Symmetry with nn_facty being odd-numbered. Asymmetry with even-numbered nn_facty.
   nn_msh_crs  = 1         !  create (=1) a mesh file or not (=0)
   nn_crs_kz   = 0         ! 0, MEAN of volume boxes
                           ! 1, MAX of boxes
                           ! 2, MIN of boxes
   ln_crs_wn   = .true.    ! wn coarsened (T) or computed using horizontal divergence ( F )
/
!-----------------------------------------------------------------------
&namc1d        !   1D configuration options                             ("key_c1d")
!-----------------------------------------------------------------------
   rn_lat1d    =      50   !  Column latitude (default at PAPA station)
   rn_lon1d    =    -145   !  Column longitude (default at PAPA station)
   ln_c1d_locpt=  .true.   ! Localization of 1D config in a grid (T) or independant point (F)
/
!-----------------------------------------------------------------------
&namtsd    !   data : Temperature  & Salinity
!-----------------------------------------------------------------------
!-----------------------------------------------------------------------
! file name ! frequency (hours)    ! variable ! time interp. ! clim  !'yearly' or ! weights  ! rotation !
!          !           !  (if <0  months)     !   name   !  (logical)   ! (T/F) ! 'monthly'  ! filename ! pairing  !
   sn_tem  = 'inits.nc', -1,'votemper',  .true.  , .true., 'yearly'   , ' '      , ' '
   sn_sal  = 'inits.nc', -1,'vosaline',  .true.  , .true., 'yearly'   , ''       , ' '
!
   cn_dir        = './'     !  root directory for the location of the runoff files
   ln_tsd_init   = .false.   !  Initialisation of ocean T & S with T &S input data (T) or not (F)
   ln_tsd_tradmp = .false.   !  damping of ocean T & S toward T &S input data (T) or not (F)
/
!!======================================================================
!!            ***  Surface Boundary Condition namelists  ***
!!======================================================================
!!   namsbc          surface boundary condition
!!   namsbc_ana      analytical         formulation
!!   namsbc_flx      flux               formulation
!!   namsbc_clio     CLIO bulk formulae formulation
!!   namsbc_core     CORE bulk formulae formulation
!!   namsbc_mfs      MFS  bulk formulae formulation
!!   namsbc_cpl      CouPLed            formulation                     ("key_coupled")
!!   namsbc_sas      StAndalone Surface module
!!   namtra_qsr      penetrative solar radiation
!!   namsbc_rnf      river runoffs
!!   namsbc_apr      Atmospheric Pressure
!!   namsbc_ssr      sea surface restoring term (for T and/or S)
!!   namsbc_alb      albedo parameters
!!======================================================================
!
!-----------------------------------------------------------------------
&namsbc        !   Surface Boundary Condition (surface module)
!-----------------------------------------------------------------------
   nn_fsbc     = 5         !  frequency of surface boundary condition computation
                           !     (also = the frequency of sea-ice model call)
   ln_ana      = .false.   !  analytical formulation                    (T => fill namsbc_ana )
   ln_flx      = .false.   !  flux formulation                          (T => fill namsbc_flx )
   ln_blk_clio = .false.   !  CLIO bulk formulation                     (T => fill namsbc_clio)
   ln_blk_core = .true.    !  CORE bulk formulation                     (T => fill namsbc_core)
   ln_blk_mfs  = .false.   !  MFS bulk formulation                      (T => fill namsbc_mfs )
!  ln_cpl      = .false.   !  Coupled formulation                       (T => fill namsbc_cpl )
   ln_apr_dyn  = .true.   !  Patm gradient added in ocean & ice Eqs.   (T => fill namsbc_apr )
   nn_ice      = 0         !  =0 no ice boundary condition   ,
                           !  =1 use observed ice-cover      ,
                           !  =2 ice-model used                         ("key_lim3" or "key_lim2)
   nn_ice_embd = 1         !  =0 levitating ice (no mass exchange, concentration/dilution effect)
                           !  =1 levitating ice with mass and salt exchange but no presure effect
                           !  =2 embedded sea-ice (full salt and mass exchanges and pressure)
   ln_dm2dc    = .false.   !  daily mean to diurnal cycle on short wave
   ln_rnf      = .false.    !  runoffs                                   (T => fill namsbc_rnf)
   ln_ssr      = .false.    !  Sea Surface Restoring on T and/or S       (T => fill namsbc_ssr)
   nn_fwb      = 0         !  FreshWater Budget: =0 unchecked
                           !     =1 global mean of e-p-r set to zero at each time step
                           !     =2 annual global mean of e-p-r set to zero
                           !     =3 global emp set to zero and spread out over erp area
!  ln_wave = .false.       !  Activate coupling with wave (either Stokes Drift or Drag coefficient, or both)  (T => fill namsbc_wave)
!  ln_cdgw = .false.       !  Neutral drag coefficient read from wave model (T => fill namsbc_wave)
!  ln_sdw  = .false.       !  Computation of 3D stokes drift                (T => fill namsbc_wave)
!  nn_lsm  = 0             !  =0 land/sea mask for input fields is not applied (keep empty land/sea mask filename field) ,
                           !  =1:n number of iterations of land/sea mask application for input fields (fill land/sea mask filename field)
!  cn_iceflx = 'linear'    !  redistribution of solar input into ice categories during coupling ice/atm.
/
!-----------------------------------------------------------------------
&namsbc_ana    !   analytical surface boundary condition
!-----------------------------------------------------------------------
   nn_tau000   =   0       !  gently increase the stress over the first ntau_rst time-steps
   rn_utau0    =   0.5     !  uniform value for the i-stress
   rn_vtau0    =   0.e0    !  uniform value for the j-stress
   rn_qns0     =   0.e0    !  uniform value for the total heat flux
   rn_qsr0     =   0.e0    !  uniform value for the solar radiation
   rn_emp0     =   0.e0    !  uniform value for the freswater budget (E-P)
/
!-----------------------------------------------------------------------
&namsbc_flx    !   surface boundary condition : flux formulation
!-----------------------------------------------------------------------
!              !  file name  ! frequency (hours) ! variable  ! time interp. !  clim  ! 'yearly'/ ! weights  ! rotation ! land/sea mask !
!              !             !  (if <0  months)  !   name    !   (logical)  !  (T/F) ! 'monthly' ! filename ! pairing  ! filename      !
   sn_utau     = 'utau'      ,        24         , 'utau'    , .false.      , .false., 'yearly'  , ''       , ''       , ''
   sn_vtau     = 'vtau'      ,        24         , 'vtau'    , .false.      , .false., 'yearly'  , ''       , ''       , ''
   sn_qtot     = 'qtot'      ,        24         , 'qtot'    , .false.      , .false., 'yearly'  , ''       , ''       , ''
   sn_qsr      = 'qsr'       ,        24         , 'qsr'     , .false.      , .false., 'yearly'  , ''       , ''       , ''
   sn_emp      = 'emp'       ,        24         , 'emp'     , .false.      , .false., 'yearly'  , ''       , ''       , ''

   cn_dir      = './fluxes/'      !  root directory for the location of the flux files
/
!-----------------------------------------------------------------------
&namsbc_clio   !   namsbc_clio  CLIO bulk formulae
!-----------------------------------------------------------------------
!              !  file name  ! frequency (hours) ! variable  ! time interp. !  clim  ! 'yearly'/ ! weights  ! rotation ! land/sea mask !
!              !             !  (if <0  months)  !   name    !   (logical)  !  (T/F) ! 'monthly' ! filename ! pairing  ! filename      !
   sn_utau     = 'taux_1m'   ,       -1          , 'sozotaux',   .true.     , .true. , 'yearly'  , ''       , ''       , ''
   sn_vtau     = 'tauy_1m'   ,       -1          , 'sometauy',   .true.     , .true. , 'yearly'  , ''       , ''       , ''
   sn_wndm     = 'flx'       ,       -1          , 'socliowi',   .true.     , .true. , 'yearly'  , ''       , ''       , ''
   sn_tair     = 'flx'       ,       -1          , 'socliot2',   .true.     , .true. , 'yearly'  , ''       , ''       , ''
   sn_humi     = 'flx'       ,       -1          , 'socliohu',   .true.     , .true. , 'yearly'  , ''       , ''       , ''
   sn_ccov     = 'flx'       ,       -1          , 'socliocl',   .false.    , .true. , 'yearly'  , ''       , ''       , ''
   sn_prec     = 'flx'       ,       -1          , 'socliopl',   .false.    , .true. , 'yearly'  , ''       , ''       , ''

   cn_dir      = './'      !  root directory for the location of the bulk files are
/
!-----------------------------------------------------------------------
&namsbc_core   !   namsbc_core  CORE bulk formulae
!-----------------------------------------------------------------------
!              !  file name                    ! frequency (hours) ! variable  ! time interp. !  clim  ! 'yearly'/ ! weights  ! rotation !
!              !                               !  (if <0  months)  !   name    !   (logical)  !  (T/F) ! 'monthly' ! filename ! pairing  !
    sn_wndi = 'ggas' ,       6      , 'U10',     .true.     ,   .false. , 'yearly'  ,'AMM60_ERAint_weights_bicub' , ''
   sn_wndj = 'ggas' ,       6      , 'V10',     .true.     ,   .false. , 'yearly'  ,'AMM60_ERAint_weights_bicub' , ''
   sn_qsr  = 'gafs' ,       3       , 'SSRD' ,  .true.     ,   .false. , 'yearly'  ,'AMM60_ERAint_weights_bilin', ''
   sn_qlw  = 'gafs' ,       3       , 'STRD' ,  .true.     ,   .false. , 'yearly'  ,'AMM60_ERAint_weights_bilin', ''
   sn_tair = 'ggas' ,       6       , 'T2'  ,   .true.     ,   .false. , 'yearly'  ,'AMM60_ERAint_weights_bilin', ''
   sn_humi = 'ggas' ,       6       , 'Q'  ,    .true.     ,   .false. , 'yearly'  ,'AMM60_ERAint_weights_bilin', ''
   sn_prec = 'gafs' ,       3       , 'TP'   ,  .true.     ,   .false. , 'yearly'  ,'AMM60_ERAint_weights_bilin', ''
   sn_snow = 'gafs' ,       3       , 'SF'   ,  .true.     ,   .false. , 'yearly'  ,'AMM60_ERAint_weights_bilin', ''
   sn_tdif = 'taudif_core', 24      , 'taudif', .false.    , .true. , 'yearly'  , 'weights_core_orca2_bilinear_noc.nc'  , ''       , ''
   cn_dir      = './FLUXES/'      !  root directory for the location of the bulk files
!  ln_2m       = .true.           !  air temperature and humidity referenced at 2m (T) instead 10m (F)
   ln_taudif   = .false.   !  HF tau contribution: use "mean of stress module - module of the mean stress" data
!  ln_bulk2z   = .true.   !  Air temperature/humidity and wind vectors are referenced at heights rn_zqt and rn_zu
   rn_zqt      = 2.        !  Air temperature and humidity reference height (m) (ln_bulk2z)
   rn_zu       = 10.        !  Wind vector reference height (m)                  (ln_bulk2z)
   rn_pfac     = 1.        !  multiplicative factor for precipitation (total & snow)
   rn_efac     = 1.        !  multiplicative factor for evaporation (0. or 1.)
   rn_vfac     = 0.        !  multiplicative factor for ocean/ice velocity
                           !  in the calculation of the wind stress (0.=absolute winds or 1.=relative winds)
/
!-----------------------------------------------------------------------
&namsbc_mfs   !   namsbc_mfs  MFS bulk formulae
!-----------------------------------------------------------------------
!              !  file name  ! frequency (hours) ! variable  ! time interp. !  clim  ! 'yearly'/ ! weights     ! rotation ! land/sea mask !
!              !             !  (if <0  months)  !   name    !   (logical)  !  (T/F) ! 'monthly' ! filename    ! pairing  ! filename      !
   sn_wndi     =   'ecmwf'   ,        6          , 'u10'     ,    .true.    , .false. , 'daily'  ,'bicubic.nc' , ''       , ''
   sn_wndj     =   'ecmwf'   ,        6          , 'v10'     ,    .true.    , .false. , 'daily'  ,'bicubic.nc' , ''       , ''
   sn_clc      =   'ecmwf'   ,        6          , 'clc'     ,    .true.    , .false. , 'daily'  ,'bilinear.nc', ''       , ''
   sn_msl      =   'ecmwf'   ,        6          , 'msl'     ,    .true.    , .false. , 'daily'  ,'bicubic.nc' , ''       , ''
   sn_tair     =   'ecmwf'   ,        6          , 't2'      ,    .true.    , .false. , 'daily'  ,'bicubic.nc' , ''       , ''
   sn_rhm      =   'ecmwf'   ,        6          , 'rh'      ,    .true.    , .false. , 'daily'  ,'bilinear.nc', ''       , ''
   sn_prec     =   'ecmwf'   ,        6          , 'precip'  ,    .true.    , .true.  , 'daily'  ,'bicubic.nc' , ''       , ''

   cn_dir      = './ECMWF/'      !  root directory for the location of the bulk files
/
!-----------------------------------------------------------------------
&namsbc_cpl    !   coupled ocean/atmosphere model                       ("key_coupled")
!-----------------------------------------------------------------------
!                    !     description       !  multiple  !    vector   !      vector          ! vector !
!                    !                       ! categories !  reference  !    orientation       ! grids  !
! send
sn_snd_temp   =       'weighted oce and ice' ,    'no'    ,     ''      ,         ''           ,   ''
sn_snd_alb    =       'weighted ice'         ,    'no'    ,     ''      ,         ''           ,   ''
sn_snd_thick  =       'none'                 ,    'no'   ,     ''      ,         ''           ,   ''
sn_snd_crt    =       'none'                 ,    'no'    , 'spherical' , 'eastward-northward' ,  'T'
sn_snd_co2    =       'coupled'              ,    'no'    ,     ''      ,         ''           ,   ''
! receive
sn_rcv_w10m   =       'none'                 ,    'no'    ,     ''      ,         ''          ,   ''
sn_rcv_taumod =       'coupled'              ,    'no'    ,     ''      ,         ''          ,   ''
sn_rcv_tau    =       'oce only'             ,    'no'    , 'cartesian' , 'eastward-northward',  'U,V'
sn_rcv_dqnsdt =       'coupled'              ,    'no'    ,     ''      ,         ''          ,   ''
sn_rcv_qsr    =       'oce and ice'          ,    'no'    ,     ''      ,         ''          ,   ''
sn_rcv_qns    =       'oce and ice'          ,    'no'    ,     ''      ,         ''          ,   ''
sn_rcv_emp    =       'conservative'         ,    'no'    ,     ''      ,         ''          ,   ''
sn_rcv_rnf    =       'coupled'              ,    'no'    ,     ''      ,         ''          ,   ''
sn_rcv_cal    =       'coupled'              ,    'no'    ,     ''      ,         ''          ,   ''
sn_rcv_co2    =       'coupled'              ,    'no'    ,     ''      ,         ''          ,   ''
/
!-----------------------------------------------------------------------
&namsbc_sas    !   analytical surface boundary condition
!-----------------------------------------------------------------------
!              !  file name  ! frequency (hours) ! variable  ! time interp. !  clim  ! 'yearly'/ ! weights  ! rotation ! land/sea mask !
!              !             !  (if <0  months)  !   name    !   (logical)  !  (T/F) ! 'monthly' ! filename ! pairing  ! filename      !
   sn_usp      = 'sas_grid_U' ,    120           , 'vozocrtx' ,  .true.    , .true. ,   'yearly'  , ''       , ''             , ''
   sn_vsp      = 'sas_grid_V' ,    120           , 'vomecrty' ,  .true.    , .true. ,   'yearly'  , ''       , ''             , ''
   sn_tem      = 'sas_grid_T' ,    120           , 'sosstsst' ,  .true.    , .true. ,   'yearly'  , ''       , ''             , ''
   sn_sal      = 'sas_grid_T' ,    120           , 'sosaline' ,  .true.    , .true. ,   'yearly'  , ''       , ''             , ''
   sn_ssh      = 'sas_grid_T' ,    120           , 'sossheig' ,  .true.    , .true. ,   'yearly'  , ''       , ''             , ''

   ln_3d_uv    = .true.    !  specify whether we are supplying a 3D u,v field
   cn_dir      = './'      !  root directory for the location of the bulk files are
/
!-----------------------------------------------------------------------
&namtra_qsr    !   penetrative solar radiation
!-----------------------------------------------------------------------
!              !  file name  ! frequency (hours) ! variable  ! time interp. !  clim  ! 'yearly'/ ! weights  ! rotation ! land/sea mask !
!              !             !  (if <0  months)  !   name    !   (logical)  !  (T/F) ! 'monthly' ! filename ! pairing  ! filename      !
   sn_chl      ='chlorophyll',        -1         , 'Chla'    ,   .true.     , .true. , 'yearly'  , ''       , ''       , ''

   cn_dir      = './'      !  root directory for the location of the runoff files
   ln_traqsr   = .true.    !  Light penetration (T) or not (F)
   ln_qsr_rgb  = .true.    !  RGB (Red-Green-Blue) light penetration
   ln_qsr_2bd  = .false.   !  2 bands              light penetration
   ln_qsr_bio  = .false.   !  bio-model light penetration
   nn_chldta   =   0       !  RGB : Chl data (=1) or cst value (=0)
   rn_abs      =   0.58    !  RGB & 2 bands: fraction of light (rn_si1)
   rn_si0      =   0.35    !  RGB & 2 bands: shortess depth of extinction
   rn_si1      =   23.0    !  2 bands: longest depth of extinction
   ln_qsr_ice  = .true.    !  light penetration for ice-model LIM3
/
!-----------------------------------------------------------------------
&namsbc_rnf    !   runoffs namelist surface boundary condition
!-----------------------------------------------------------------------
!          !  file name  ! frequency (hours) ! variable  ! time interp. !  clim  ! 'yearly'/ ! weights  ! rotation ! land/sea mask !
!          !             !  (if <0  months)  !   name    !   (logical)  !  (T/F) ! 'monthly' ! filename ! pairing  ! filename      !
   sn_rnf      = 'rivers'     ,      24      , 'rorunoff',   .false.    , .true. , 'yearly'  , ''       , ''       ,   ''
   sn_cnf      = 'rivers'     ,      0       , 'socoefr0',   .false.    , .true. , 'yearly'  , ''       , ''       ,   ''
   sn_s_rnf    = 'rivers'     ,      0       , 'rosaline',   .false.    , .true. , 'yearly'  , ''       , ''       ,   ''